@<TRIPOS>MOLECULE
scratch
   36    37     1     0     0
SMALL
bcc
@<TRIPOS>ATOM
      1 N          -2.0860    2.0430    0.4350 n         1 UNK     -0.545067 
      2 CA         -0.6380    2.0430    0.4350 c3        1 UNK      0.030533 
      3 C          -0.1150    3.4720    0.4350 c         1 UNK      0.627933 
      4 N1          0.8530    3.7620    1.3030 n         1 UNK      0.000000 
      5 OXT        -0.6250    4.2530   -0.3660 o         1 UNK     -0.619267 
      6 CB         -0.0860    1.3420   -0.7970 c3        1 UNK     -0.002367 
      7 CG         -0.3340   -0.1460   -0.8450 cc        1 UNK     -0.159367 
      8 CD1        -1.2830   -0.7840   -1.5440 cd        1 UNK     -0.047167 
      9 CD2         0.3740   -1.1510   -0.1730 ca        1 UNK     -0.073167 
     10 CE3         1.4670   -1.0410    0.6950 ca        1 UNK     -0.078167 
     11 CE2        -0.1260   -2.3510   -0.4540 ca        1 UNK     -0.019467 
     12 NE1        -1.1300   -2.1810   -1.2790 na        1 UNK     -0.234567 
     13 CZ2         0.3680   -3.5530    0.0660 ca        1 UNK     -0.136167 
     14 CH2         1.4530   -3.4440    0.9270 ca        1 UNK      0.035233 
     15 CZ3         1.9820   -2.2400    1.2300 ca        1 UNK     -0.147167 
     16 HA         -0.2800    1.5310    1.3280 h1        1 UNK      0.107533 
     17 HB2         0.9910    1.5080   -0.8270 hc        1 UNK      0.065033 
     18 HB3        -0.5320    1.7960   -1.6830 hc        1 UNK      0.065033 
     19 HD1        -2.0230   -0.3290   -2.1850 h4        1 UNK      0.173833 
     20 HE3         1.8970   -0.0820    0.9430 ha        1 UNK      0.138833 
     21 HZ2        -0.0680   -4.5080   -0.1880 ha        1 UNK      0.149833 
     22 Cl1         2.0570   -4.7080    1.5410 cl        1 UNK     -0.098567 
     23 HZ3         2.8250   -2.1920    1.9040 ha        1 UNK      0.146833 
     24 HE1        -1.7030   -2.9180   -1.6650 hn        1 UNK      0.303533 
     25 H11         1.2060    3.0470    1.9220 hn        1 UNK      0.000000 
     26 C1          1.3980    5.1020    1.3580 c3        1 UNK      0.000000 
     27 H4          2.1740    5.1470    2.1230 h1        1 UNK      0.000000 
     28 H1          1.8270    5.3590    0.3900 h1        1 UNK      0.000000 
     29 HC11        0.6040    5.8070    1.6030 h1        1 UNK      0.000000 
     30 H2         -2.5910    2.9180    0.4350 hn        1 UNK      0.316333 
     31 C2         -2.8090    0.7890    0.4350 c         1 UNK      0.000000 
     32 O1         -2.1900   -0.2830    0.4350 o         1 UNK      0.000000 
     33 C3         -4.3340    0.7890    0.4350 c3        1 UNK      0.000000 
     34 H31        -4.6980   -0.2380    0.4350 hc        1 UNK      0.000000 
     35 H32        -4.6970    1.3030   -0.4550 hc        1 UNK      0.000000 
     36 HC31       -4.6970    1.3030    1.3250 hc        1 UNK      0.000000 
@<TRIPOS>BOND
     1     2     1 1   
     2     3     2 1   
     3     4     3 1   
     4     5     3 2   
     5     6     2 1   
     6     7     6 1   
     7     8     7 2   
     8     9     7 1   
     9    10     9 ar  
    10    11     9 ar  
    11    12    11 2   
    12    13    11 ar  
    13    14    13 ar  
    14    15    14 ar  
    15    15    10 ar  
    16    12     8 1   
    17    16     2 1   
    18    17     6 1   
    19    18     6 1   
    20    19     8 1   
    21    20    10 1   
    22    21    13 1   
    23    22    14 1   
    24    23    15 1   
    25    24    12 1   
    26    25     4 1   
    27    26     4 1   
    28    27    26 1   
    29    28    26 1   
    30    29    26 1   
    31    30     1 1   
    32    31     1 1   
    33    32    31 2   
    34    33    31 1   
    35    34    33 1   
    36    35    33 1   
    37    36    33 1   
@<TRIPOS>SUBSTRUCTURE
     1 UNK         1 TEMP              0 ****  ****    0 ROOT
