@<TRIPOS>MOLECULE
scratch
42 43 1 0 0
SMALL
NO_CHARGES


@<TRIPOS>ATOM
      1 N          -1.5629    1.3967    0.7704 N.am      1 UNK    0.0000
      2 CA         -0.1153    1.3967    0.7704 C.3       1 UNK    0.0000
      3 C           0.4077    2.8260    0.7704 C.2       1 UNK    0.0000
      4 O           1.3008    3.0933    1.5713 O.2       1 UNK    0.0000
      5 N1         -0.1445    3.6719   -0.0975 N.am      1 UNK    0.0000
      6 CB          0.4361    0.6962   -0.4617 C.3       1 UNK    0.0000
      7 CG          0.1784   -0.7907   -0.5153 C.ar      1 UNK    0.0000
      8 CD2         1.0137   -1.6715    0.1822 C.ar      1 UNK    0.0000
      9 CD1        -0.8958   -1.2885   -1.2626 C.ar      1 UNK    0.0000
     10 CE1        -1.1347   -2.6670   -1.3123 C.ar      1 UNK    0.0000
     11 CZ         -0.2994   -3.5478   -0.6147 C.ar      1 UNK    0.0000
     12 CE2         0.7748   -3.0500    0.1325 C.ar      1 UNK    0.0000
     13 HA          0.2426    0.8846    1.6635 H         1 UNK    0.0000
     14 HB2         1.5143    0.8542   -0.4870 H         1 UNK    0.0000
     15 HB3        -0.0024    1.1561   -1.3473 H         1 UNK    0.0000
     16 HD2         1.8423   -1.2875    0.7586 H         1 UNK    0.0000
     17 HD1        -1.5401   -0.6090   -1.8007 H         1 UNK    0.0000
     18 HE1        -1.9633   -3.0510   -1.8887 H         1 UNK    0.0000
     19 C1         -0.5387   -4.9288   -0.6645 C.ar      1 UNK    0.0000
     20 HE2         1.4191   -3.7295    0.6706 H         1 UNK    0.0000
     21 C2         -1.6148   -5.4275   -1.4131 C.ar      1 UNK    0.0000
     22 C4          0.2980   -5.8111    0.0342 C.ar      1 UNK    0.0000
     23 H21        -2.2591   -4.7480   -1.9512 H         1 UNK    0.0000
     24 C3         -1.8541   -6.8084   -1.4628 C.ar      1 UNK    0.0000
     25 H32        -2.6828   -7.1924   -2.0393 H         1 UNK    0.0000
     26 H41         1.1266   -5.4271    0.6107 H         1 UNK    0.0000
     27 C5          0.0586   -7.1921   -0.0155 C.ar      1 UNK    0.0000
     28 C6         -1.0174   -7.6908   -0.7641 C.ar      1 UNK    0.0000
     29 H52         0.7030   -7.8716    0.5226 H         1 UNK    0.0000
     30 H61        -1.2017   -8.7542   -0.8024 H         1 UNK    0.0000
     31 H1         -2.0679    2.2714    0.7704 H         1 UNK    0.0000
     32 C7         -2.2867    0.1430    0.7704 C.2       1 UNK    0.0000
     33 O1         -1.6674   -0.9297    0.7704 O.2       1 UNK    0.0000
     34 C8         -3.8111    0.1430    0.7704 C.3       1 UNK    0.0000
     35 H81        -4.1750   -0.8844    0.7704 H         1 UNK    0.0000
     36 H82        -4.1742    0.6568    1.6605 H         1 UNK    0.0000
     37 HC81       -4.1745    0.6571   -0.1194 H         1 UNK    0.0000
     38 C9         -1.1930    3.2161   -0.9854 C.3       1 UNK    0.0000
     39 H12         0.1683    4.6315   -0.1361 H         1 UNK    0.0000
     40 H91        -1.5188    4.0419   -1.6178 H         1 UNK    0.0000
     41 H92        -0.8135    2.4078   -1.6105 H         1 UNK    0.0000
     42 HC91       -2.0362    2.8548   -0.3966 H         1 UNK    0.0000
@<TRIPOS>BOND
     1    2    1 1
     2    3    2 1
     3    4    3 2
     4    5    3 am
     5    6    2 1
     6    7    6 1
     7    8    7 ar
     8    9    7 ar
     9   10    9 ar
    10   11   10 ar
    11   12   11 ar
    12   12    8 ar
    13   13    2 1
    14   14    6 1
    15   15    6 1
    16   16    8 1
    17   17    9 1
    18   18   10 1
    19   19   11 1
    20   20   12 1
    21   21   19 ar
    22   22   19 ar
    23   23   21 1
    24   24   21 ar
    25   25   24 1
    26   26   22 1
    27   27   22 ar
    28   28   27 ar
    29   29   27 1
    30   28   24 ar
    31   30   28 1
    32   31    1 1
    33   32    1 am
    34   33   32 2
    35   34   32 1
    36   35   34 1
    37   36   34 1
    38   37   34 1
    39   38    5 1
    40   39    5 1
    41   40   38 1
    42   41   38 1
    43   42   38 1
@<TRIPOS>SUBSTRUCTURE
     1 UNK     2 RESIDUE           4 A     UNK     0 ROOT
