@<TRIPOS>MOLECULE
NIP.pdb
   34    33     1     0     0
SMALL
bcc


@<TRIPOS>ATOM
      1 N           -1.5480    -1.0670    -0.0000 n          1 UNK      -0.470800
      2 CA          -0.1010    -1.0670     0.0000 c3         1 UNK       0.028000
      3 C            0.4220    -2.4960     0.0000 c          1 UNK       0.637100
      4 N1           1.3900    -2.7860    -0.8680 n          1 UNK      -0.562900
      5 OXT         -0.0870    -3.2770     0.8010 o          1 UNK      -0.627100
      6 HA2          0.2600    -0.5520     0.8900 h1         1 UNK       0.082200
      7 HA3          0.2610    -0.5500    -0.8890 h1         1 UNK       0.082200
      8 C1           1.8970    -1.7610    -1.7560 c3         1 UNK       0.067300
      9 H12          1.7710    -3.7210    -0.9070 hn         1 UNK       0.317500
     10 H4           2.6790    -2.1820    -2.3880 h1         1 UNK       0.048700
     11 H1           2.3080    -0.9410    -1.1670 h1         1 UNK       0.048700
     12 HC11         1.0850    -1.3880    -2.3810 h1         1 UNK       0.048700
     13 C2          -2.2720     0.1860    -0.0000 c3         1 UNK       0.081000
     14 C7          -2.2720    -2.3210    -0.0000 c          1 UNK       0.664100
     15 C3          -3.7710    -0.0910    -0.0000 c3         1 UNK      -0.097400
     16 H22         -2.0090     0.7580    -0.8900 h1         1 UNK       0.068700
     17 HC21        -2.0090     0.7580     0.8900 h1         1 UNK       0.068700
     18 C4          -4.5330     1.2290    -0.0000 c3         1 UNK      -0.064700
     19 H32         -4.0340    -0.6630    -0.8900 hc         1 UNK       0.043700
     20 HC31        -4.0350    -0.6630     0.8900 hc         1 UNK       0.043700
     21 H41         -5.6050     1.0300    -0.0000 hc         1 UNK       0.047700
     22 C5          -4.1650     2.0280     1.2450 c3         1 UNK      -0.093100
     23 C6          -4.1650     2.0280    -1.2440 c3         1 UNK      -0.093100
     24 H51         -4.4280     1.4570     2.1350 hc         1 UNK       0.036200
     25 H52         -3.0930     2.2260     1.2450 hc         1 UNK       0.036200
     26 HC51        -4.7090     2.9720     1.2450 hc         1 UNK       0.036200
     27 H61         -4.7090     2.9730    -1.2450 hc         1 UNK       0.036200
     28 H62         -3.0930     2.2280    -1.2440 hc         1 UNK       0.036200
     29 HC61        -4.4270     1.4570    -2.1350 hc         1 UNK       0.036200
     30 O1          -1.6530    -3.3940     0.0000 o          1 UNK      -0.624100
     31 C8          -3.7970    -2.3210    -0.0000 c3         1 UNK      -0.167100
     32 H81         -4.1600    -3.3480    -0.0000 hc         1 UNK       0.068700
     33 H82         -4.1600    -1.8070     0.8900 hc         1 UNK       0.068700
     34 HC81        -4.1600    -1.8070    -0.8900 hc         1 UNK       0.068700
@<TRIPOS>BOND
     1     1     2 1   
     2     1    13 1   
     3     1    14 1   
     4     2     3 1   
     5     2     6 1   
     6     2     7 1   
     7     3     4 1   
     8     3     5 2   
     9     4     8 1   
    10     4     9 1   
    11     8    10 1   
    12     8    11 1   
    13     8    12 1   
    14    13    15 1   
    15    13    16 1   
    16    13    17 1   
    17    14    30 2   
    18    14    31 1   
    19    15    18 1   
    20    15    19 1   
    21    15    20 1   
    22    18    21 1   
    23    18    22 1   
    24    18    23 1   
    25    22    24 1   
    26    22    25 1   
    27    22    26 1   
    28    23    27 1   
    29    23    28 1   
    30    23    29 1   
    31    31    32 1   
    32    31    33 1   
    33    31    34 1   
@<TRIPOS>SUBSTRUCTURE
     1 UNK         1 TEMP              0 ****  ****    0 ROOT
