@<TRIPOS>MOLECULE
NIP.pdb
   31    30     1     0     0
SMALL
bcc
@<TRIPOS>ATOM
      1 N          -1.5480   -1.0670    0.0000 n         1 UNK     -0.466537 
      2 CA         -0.1010   -1.0670   -0.0000 c3        1 UNK      0.030263 
      3 C           0.4220   -2.4960   -0.0000 c         1 UNK      0.635363 
      4 N1          1.3900   -2.7860   -0.8680 n         1 UNK      0.000000 
      5 OXT        -0.0870   -3.2770    0.8010 o         1 UNK     -0.625837 
      6 HA2         0.2600   -0.5520    0.8900 h1        1 UNK      0.086963 
      7 HA3         0.2610   -0.5500   -0.8890 h1        1 UNK      0.086963 
      8 C1          1.8970   -1.7610   -1.7560 c3        1 UNK      0.000000 
      9 H12         1.7710   -3.7210   -0.9070 hn        1 UNK      0.000000 
     10 H4          2.6790   -2.1820   -2.3880 h1        1 UNK      0.000000 
     11 H1          2.3080   -0.9410   -1.1670 h1        1 UNK      0.000000 
     12 HC11        1.0850   -1.3880   -2.3810 h1        1 UNK      0.000000 
     13 C2         -2.2720    0.1860    0.0000 c3        1 UNK      0.087263 
     14 C7         -2.2720   -2.3210   -0.0000 c         1 UNK      0.000000 
     15 C3         -3.7710   -0.0910    0.0000 c3        1 UNK     -0.084437 
     16 H22        -2.0090    0.7580   -0.8900 h1        1 UNK      0.068963 
     17 HC21       -2.0090    0.7580    0.8900 h1        1 UNK      0.068963 
     18 O1         -1.6530   -3.3940   -0.0000 o         1 UNK      0.000000 
     19 C8         -3.7970   -2.3210    0.0000 c3        1 UNK      0.000000 
     20 H81        -4.1600   -3.3480    0.0000 hc        1 UNK      0.000000 
     21 H82        -4.1600   -1.8070    0.8900 hc        1 UNK      0.000000 
     22 HC81       -4.1600   -1.8070   -0.8900 hc        1 UNK      0.000000 
     23 C4         -4.5320    1.2300    0.0000 c3        1 UNK     -0.090837 
     24 C5         -4.1400   -0.8900   -1.2450 c3        1 UNK     -0.090837 
     25 HC31       -4.0350   -0.6630    0.8900 hc        1 UNK      0.048963 
     26 H41        -5.6040    1.0320    0.0000 hc        1 UNK      0.040796 
     27 H42        -4.2690    1.8010    0.8900 hc        1 UNK      0.040796 
     28 HC41       -4.2690    1.8010   -0.8900 hc        1 UNK      0.040796 
     29 H51        -5.2120   -1.0880   -1.2460 hc        1 UNK      0.040796 
     30 H52        -3.5960   -1.8340   -1.2450 hc        1 UNK      0.040796 
     31 HC51       -3.8760   -0.3180   -2.1350 hc        1 UNK      0.040796 
@<TRIPOS>BOND
     1     1     2 1   
     2     1    13 1   
     3     1    14 1   
     4     2     3 1   
     5     2     6 1   
     6     2     7 1   
     7     3     4 1   
     8     3     5 2   
     9     4     8 1   
    10     4     9 1   
    11     8    10 1   
    12     8    11 1   
    13     8    12 1   
    14    13    15 1   
    15    13    16 1   
    16    13    17 1   
    17    14    18 2   
    18    14    19 1   
    19    19    20 1   
    20    19    21 1   
    21    19    22 1   
    22    23    15 1   
    23    24    15 1   
    24    25    15 1   
    25    26    23 1   
    26    27    23 1   
    27    28    23 1   
    28    29    24 1   
    29    30    24 1   
    30    31    24 1   
@<TRIPOS>SUBSTRUCTURE
     1 UNK         1 TEMP              0 ****  ****    0 ROOT
