@<TRIPOS>MOLECULE
NIP.pdb
31 30 1 0 0
SMALL
NO_CHARGES


@<TRIPOS>ATOM
      1 N          -1.5480   -1.0670    0.0000 N.am      1 UNK    0.0000
      2 CA         -0.1010   -1.0670   -0.0000 C.3       1 UNK    0.0000
      3 C           0.4220   -2.4960   -0.0000 C.2       1 UNK    0.0000
      4 N1          1.3900   -2.7860   -0.8680 N.am      1 UNK    0.0000
      5 OXT        -0.0870   -3.2770    0.8010 O.2       1 UNK    0.0000
      6 HA2         0.2600   -0.5520    0.8900 H         1 UNK    0.0000
      7 HA3         0.2610   -0.5500   -0.8890 H         1 UNK    0.0000
      8 C1          1.8970   -1.7610   -1.7560 C.3       1 UNK    0.0000
      9 H12         1.7710   -3.7210   -0.9070 H         1 UNK    0.0000
     10 H4          2.6790   -2.1820   -2.3880 H         1 UNK    0.0000
     11 H1          2.3080   -0.9410   -1.1670 H         1 UNK    0.0000
     12 HC11        1.0850   -1.3880   -2.3810 H         1 UNK    0.0000
     13 C2         -2.2720    0.1860    0.0000 C.3       1 UNK    0.0000
     14 C7         -2.2720   -2.3210   -0.0000 C.2       1 UNK    0.0000
     15 C3         -3.7710   -0.0910    0.0000 C.3       1 UNK    0.0000
     16 H22        -2.0090    0.7580   -0.8900 H         1 UNK    0.0000
     17 HC21       -2.0090    0.7580    0.8900 H         1 UNK    0.0000
     18 O1         -1.6530   -3.3940   -0.0000 O.2       1 UNK    0.0000
     19 C8         -3.7970   -2.3210    0.0000 C.3       1 UNK    0.0000
     20 H81        -4.1600   -3.3480    0.0000 H         1 UNK    0.0000
     21 H82        -4.1600   -1.8070    0.8900 H         1 UNK    0.0000
     22 HC81       -4.1600   -1.8070   -0.8900 H         1 UNK    0.0000
     23 C4         -4.5325    1.2296    0.0000 C.3       1 UNK    0.0000
     24 C5         -4.1398   -0.8898   -1.2449 C.3       1 UNK    0.0000
     25 HC31       -4.0349   -0.6626    0.8898 H         1 UNK    0.0000
     26 H41        -5.6044    1.0315    0.0000 H         1 UNK    0.0000
     27 H42        -4.2688    1.8007    0.8901 H         1 UNK    0.0000
     28 HC41       -4.2687    1.8011   -0.8898 H         1 UNK    0.0000
     29 H51        -5.2116   -1.0883   -1.2456 H         1 UNK    0.0000
     30 H52        -3.5956   -1.8343   -1.2447 H         1 UNK    0.0000
     31 HC51       -3.8755   -0.3184   -2.1347 H         1 UNK    0.0000
@<TRIPOS>BOND
     1    1    2 1
     2    1   13 1
     3    1   14 am
     4    2    3 1
     5    2    6 1
     6    2    7 1
     7    3    4 am
     8    3    5 2
     9    4    8 1
    10    4    9 1
    11    8   10 1
    12    8   11 1
    13    8   12 1
    14   13   15 1
    15   13   16 1
    16   13   17 1
    17   14   18 2
    18   14   19 1
    19   19   20 1
    20   19   21 1
    21   19   22 1
    22   23   15 1
    23   24   15 1
    24   25   15 1
    25   26   23 1
    26   27   23 1
    27   28   23 1
    28   29   24 1
    29   30   24 1
    30   31   24 1
@<TRIPOS>SUBSTRUCTURE
     1 UNK     2 RESIDUE           4 A     UNK     0 ROOT
