@<TRIPOS>MOLECULE
scratch
36 37 1 0 0
SMALL
AMBER ff14SB


@<TRIPOS>ATOM
      1 N          -2.0855    2.0429    0.4349 N.am      1 UNK   -0.3821
      2 CA         -0.6379    2.0429    0.4349 C.3       1 UNK   -0.2084
      3 C          -0.1149    3.4722    0.4349 C.2       1 UNK    0.7658
      4 N1          0.8529    3.7619    1.3027 N.am      1 UNK   -0.8011
      5 OXT        -0.6245    4.2528   -0.3660 O.2       1 UNK   -0.8011
      6 CB         -0.0865    1.3424   -0.7973 C.3       1 UNK   -0.0742
      7 CG         -0.3339   -0.1464   -0.8451 C.ar      1 UNK   -0.0796
      8 CD1        -1.2829   -0.7842   -1.5438 C.ar      1 UNK   -0.1808
      9 CD2         0.3743   -1.1513   -0.1734 C.ar      1 UNK    0.1078
     10 CE3         1.4672   -1.0414    0.6946 C.ar      1 UNK   -0.1837
     11 CE2        -0.1261   -2.3511   -0.4541 C.ar      1 UNK    0.1222
     12 NE1        -1.1297   -2.1810   -1.2787 N.ar      1 UNK   -0.3316
     13 CZ2         0.3682   -3.5534    0.0656 C.ar      1 UNK   -0.2594
     14 CH2         1.4533   -3.4443    0.9274 C.ar      1 UNK   -0.1020
     15 CZ3         1.9821   -2.2397    1.2305 C.ar      1 UNK   -0.2287
     16 HA         -0.2800    1.5308    1.3280 H         1 UNK    0.1272
     17 HB2         0.9905    1.5079   -0.8274 H         1 UNK    0.0497
     18 HB3        -0.5318    1.7964   -1.6825 H         1 UNK    0.0497
     19 HD1        -2.0232   -0.3294   -2.1854 H         1 UNK    0.2043
     20 HE3         1.8966   -0.0820    0.9426 H         1 UNK    0.1491
     21 HZ2        -0.0675   -4.5085   -0.1880 H         1 UNK    0.1567
     22 CL1         2.0571   -4.7076    1.5413 Cl        1 UNK    0.1401
     23 HZ3         2.8252   -2.1924    1.9038 H         1 UNK    0.1507
     24 HE1        -1.7028   -2.9176   -1.6649 H         1 UNK    0.3413
     25 H11         1.2064    3.0468    1.9222 H         1 UNK    0.0000
     26 C1          1.3982    5.1017    1.3581 C.3       1 UNK    0.0000
     27 H4          2.1740    5.1475    2.1225 H         1 UNK    0.0000
     28 H1          1.8270    5.3595    0.3898 H         1 UNK    0.0000
     29 HC11        0.6044    5.8072    1.6034 H         1 UNK    0.0000
     30 H2         -2.5905    2.9176    0.4349 H         1 UNK    0.0000
     31 C2         -2.8093    0.7893    0.4349 C.2       1 UNK    0.0000
     32 O1         -2.1900   -0.2835    0.4349 O.2       1 UNK    0.0000
     33 C3         -4.3337    0.7893    0.4349 C.3       1 UNK    0.0000
     34 H31        -4.6976   -0.2382    0.4349 H         1 UNK    0.0000
     35 H32        -4.6968    1.3030   -0.4552 H         1 UNK    0.0000
     36 HC31       -4.6971    1.3034    1.3247 H         1 UNK    0.0000
@<TRIPOS>BOND
     1    2    1 1
     2    3    2 1
     3    4    3 am
     4    5    3 2
     5    6    2 1
     6    7    6 1
     7    8    7 ar
     8    9    7 ar
     9   10    9 ar
    10   11    9 ar
    11   12   11 ar
    12   13   11 ar
    13   14   13 ar
    14   15   14 ar
    15   15   10 ar
    16   12    8 ar
    17   16    2 1
    18   17    6 1
    19   18    6 1
    20   19    8 1
    21   20   10 1
    22   21   13 1
    23   22   14 1
    24   23   15 1
    25   24   12 1
    26   25    4 1
    27   26    4 1
    28   27   26 1
    29   28   26 1
    30   29   26 1
    31   30    1 1
    32   31    1 am
    33   32   31 2
    34   33   31 1
    35   34   33 1
    36   35   33 1
    37   36   33 1
@<TRIPOS>SUBSTRUCTURE
     1 UNK     2 RESIDUE           4 A     UNK     0 ROOT
