@<TRIPOS>MOLECULE
scratch
   42    43     1     0     0
SMALL
bcc
@<TRIPOS>ATOM
      1 N          -1.5630    1.3970    0.7700 n         1 UNK     -0.570600 
      2 CA         -0.1150    1.3970    0.7700 c3        1 UNK      0.044000 
      3 C           0.4080    2.8260    0.7700 c         1 UNK      0.645400 
      4 O           1.3010    3.0930    1.5710 o         1 UNK     -0.603800 
      5 N1         -0.1440    3.6720   -0.0980 n         1 UNK      0.000000 
      6 CB          0.4360    0.6960   -0.4620 c3        1 UNK     -0.052800 
      7 CG          0.1780   -0.7910   -0.5150 ca        1 UNK     -0.085000 
      8 CD2         1.0140   -1.6710    0.1820 ca        1 UNK     -0.123200 
      9 CD1        -0.8960   -1.2880   -1.2630 ca        1 UNK     -0.123200 
     10 CE1        -1.1350   -2.6670   -1.3120 ca        1 UNK     -0.115200 
     11 CZ         -0.2990   -3.5480   -0.6150 cp        1 UNK     -0.032700 
     12 CE2         0.7750   -3.0500    0.1330 ca        1 UNK     -0.115200 
     13 HA          0.2430    0.8850    1.6630 h1        1 UNK      0.126000 
     14 HB2         1.5140    0.8540   -0.4870 hc        1 UNK      0.066000 
     15 HB3        -0.0020    1.1560   -1.3470 hc        1 UNK      0.066000 
     16 HD2         1.8420   -1.2880    0.7590 ha        1 UNK      0.136800 
     17 HD1        -1.5400   -0.6090   -1.8010 ha        1 UNK      0.136800 
     18 HE1        -1.9630   -3.0510   -1.8890 ha        1 UNK      0.138800 
     19 C1         -0.5390   -4.9290   -0.6640 cp        1 UNK     -0.037700 
     20 HE2         1.4190   -3.7290    0.6710 ha        1 UNK      0.138800 
     21 C2         -1.6150   -5.4280   -1.4130 ca        1 UNK     -0.116700 
     22 C4          0.2980   -5.8110    0.0340 ca        1 UNK     -0.116700 
     23 H21        -2.2590   -4.7480   -1.9510 ha        1 UNK      0.135300 
     24 C3         -1.8540   -6.8080   -1.4630 ca        1 UNK     -0.129200 
     25 H32        -2.6830   -7.1920   -2.0390 ha        1 UNK      0.133800 
     26 H41         1.1270   -5.4270    0.6110 ha        1 UNK      0.135300 
     27 C5          0.0590   -7.1920   -0.0150 ca        1 UNK     -0.129200 
     28 C6         -1.0170   -7.6910   -0.7640 ca        1 UNK     -0.124700 
     29 H52         0.7030   -7.8720    0.5230 ha        1 UNK      0.133800 
     30 H61        -1.2020   -8.7540   -0.8020 ha        1 UNK      0.133300 
     31 H1         -2.0680    2.2710    0.7700 hn        1 UNK      0.305800 
     32 C7         -2.2870    0.1430    0.7700 c         1 UNK      0.000000 
     33 O1         -1.6670   -0.9300    0.7700 o         1 UNK      0.000000 
     34 C8         -3.8110    0.1430    0.7700 c3        1 UNK      0.000000 
     35 H81        -4.1750   -0.8840    0.7700 hc        1 UNK      0.000000 
     36 H82        -4.1740    0.6570    1.6610 hc        1 UNK      0.000000 
     37 HC81       -4.1750    0.6570   -0.1190 hc        1 UNK      0.000000 
     38 C9         -1.1930    3.2160   -0.9850 c3        1 UNK      0.000000 
     39 H12         0.1680    4.6310   -0.1360 hn        1 UNK      0.000000 
     40 H91        -1.5190    4.0420   -1.6180 h1        1 UNK      0.000000 
     41 H92        -0.8140    2.4080   -1.6110 h1        1 UNK      0.000000 
     42 HC91       -2.0360    2.8550   -0.3970 h1        1 UNK      0.000000 
@<TRIPOS>BOND
     1     2     1 1   
     2     3     2 1   
     3     4     3 2   
     4     5     3 1   
     5     6     2 1   
     6     7     6 1   
     7     8     7 ar  
     8     9     7 ar  
     9    10     9 ar  
    10    11    10 ar  
    11    12    11 ar  
    12    12     8 ar  
    13    13     2 1   
    14    14     6 1   
    15    15     6 1   
    16    16     8 1   
    17    17     9 1   
    18    18    10 1   
    19    19    11 1   
    20    20    12 1   
    21    21    19 ar  
    22    22    19 ar  
    23    23    21 1   
    24    24    21 ar  
    25    25    24 1   
    26    26    22 1   
    27    27    22 ar  
    28    28    27 ar  
    29    29    27 1   
    30    28    24 ar  
    31    30    28 1   
    32    31     1 1   
    33    32     1 1   
    34    33    32 2   
    35    34    32 1   
    36    35    34 1   
    37    36    34 1   
    38    37    34 1   
    39    38     5 1   
    40    39     5 1   
    41    40    38 1   
    42    41    38 1   
    43    42    38 1   
@<TRIPOS>SUBSTRUCTURE
     1 UNK         1 TEMP              0 ****  ****    0 ROOT
