@<TRIPOS>MOLECULE
NIP.pdb
34 33 1 0 0
SMALL
NO_CHARGES


@<TRIPOS>ATOM
      1 N          -1.5480   -1.0670   -0.0000 N.am      1 UNK    0.0000
      2 CA         -0.1010   -1.0670    0.0000 C.3       1 UNK    0.0000
      3 C           0.4220   -2.4960    0.0000 C.2       1 UNK    0.0000
      4 N1          1.3900   -2.7860   -0.8680 N.am      1 UNK    0.0000
      5 OXT        -0.0870   -3.2770    0.8010 O.2       1 UNK    0.0000
      6 HA2         0.2600   -0.5520    0.8900 H         1 UNK    0.0000
      7 HA3         0.2610   -0.5500   -0.8890 H         1 UNK    0.0000
      8 C1          1.8970   -1.7610   -1.7560 C.3       1 UNK    0.0000
      9 H12         1.7710   -3.7210   -0.9070 H         1 UNK    0.0000
     10 H4          2.6790   -2.1820   -2.3880 H         1 UNK    0.0000
     11 H1          2.3080   -0.9410   -1.1670 H         1 UNK    0.0000
     12 HC11        1.0850   -1.3880   -2.3810 H         1 UNK    0.0000
     13 C2         -2.2720    0.1860   -0.0000 C.3       1 UNK    0.0000
     14 C7         -2.2720   -2.3210   -0.0000 C.2       1 UNK    0.0000
     15 C3         -3.7710   -0.0910   -0.0000 C.3       1 UNK    0.0000
     16 H22        -2.0090    0.7580   -0.8900 H         1 UNK    0.0000
     17 HC21       -2.0090    0.7580    0.8900 H         1 UNK    0.0000
     18 C4         -4.5330    1.2290   -0.0000 C.3       1 UNK    0.0000
     19 H32        -4.0340   -0.6630   -0.8900 H         1 UNK    0.0000
     20 HC31       -4.0350   -0.6630    0.8900 H         1 UNK    0.0000
     21 H41        -5.6050    1.0300   -0.0000 H         1 UNK    0.0000
     22 C5         -4.1650    2.0280    1.2450 C.3       1 UNK    0.0000
     23 C6         -4.1650    2.0280   -1.2440 C.3       1 UNK    0.0000
     24 H51        -4.4280    1.4570    2.1350 H         1 UNK    0.0000
     25 H52        -3.0930    2.2260    1.2450 H         1 UNK    0.0000
     26 HC51       -4.7090    2.9720    1.2450 H         1 UNK    0.0000
     27 H61        -4.7090    2.9730   -1.2450 H         1 UNK    0.0000
     28 H62        -3.0930    2.2280   -1.2440 H         1 UNK    0.0000
     29 HC61       -4.4270    1.4570   -2.1350 H         1 UNK    0.0000
     30 O1         -1.6530   -3.3940    0.0000 O.2       1 UNK    0.0000
     31 C8         -3.7970   -2.3210   -0.0000 C.3       1 UNK    0.0000
     32 H81        -4.1600   -3.3480   -0.0000 H         1 UNK    0.0000
     33 H82        -4.1600   -1.8070    0.8900 H         1 UNK    0.0000
     34 HC81       -4.1600   -1.8070   -0.8900 H         1 UNK    0.0000
@<TRIPOS>BOND
     1    1    2 1
     2    1   13 1
     3    1   14 am
     4    2    3 1
     5    2    6 1
     6    2    7 1
     7    3    4 am
     8    3    5 2
     9    4    8 1
    10    4    9 1
    11    8   10 1
    12    8   11 1
    13    8   12 1
    14   13   15 1
    15   13   16 1
    16   13   17 1
    17   14   30 2
    18   14   31 1
    19   15   18 1
    20   15   19 1
    21   15   20 1
    22   18   21 1
    23   18   22 1
    24   18   23 1
    25   22   24 1
    26   22   25 1
    27   22   26 1
    28   23   27 1
    29   23   28 1
    30   23   29 1
    31   31   32 1
    32   31   33 1
    33   31   34 1
@<TRIPOS>SUBSTRUCTURE
     1 UNK     2 RESIDUE           4 A     UNK     0 ROOT
